Circuit: * C:\Users\idewe\Box\Projects\IDEWERKS High Power Active Load\Spice\kevindcload.asc

C9: Increased Cpar to 1.5e-009
C4: Increased Cpar to 4.7e-016
Direct Newton iteration failed to find .op point.  (Use ".option noopiter" to skip.)
Starting Gmin stepping
Gmin = 10
Gmin = 1.07374
Gmin = 0.115292
Gmin = 0.0123794
Gmin = 0.00132923
Gmin = 0.000142725
Gmin = 1.5325e-005
vernier = 0.5
vernier = 0.25
vernier = 0.125
vernier = 0.0625
vernier = 0.03125
vernier = 0.015625
vernier = 0.0078125
vernier = 0.00390625
Gmin = 1.226e-005
vernier = 0.00195313
vernier = 0.000976563
vernier = 0.000488281
Gmin = 0
Gmin stepping failed

Starting source stepping with srcstepmethod=0
Source Step = 3.0303%
Source Step = 7.38636%
Source Step = 8.66477%
Source Step = 9.13826%
Source Step = 9.61174%
Source Step = 10.0852%
Source Step = 10.5587%
vernier = 0.0234375
Source Step = 11.0795%
Source Step = 11.7898%
Source Step = 12.5%
Source Step = 13.2102%
Source Step = 13.9205%
vernier = 0.0351563
Source Step = 14.6662%
Source Step = 15.7315%
Source Step = 16.7969%
Source Step = 17.8622%
Source Step = 18.9276%
Source Step = 19.9929%
vernier = 0.0527344
Source Step = 21.5909%
Source Step = 23.1889%
Source Step = 24.7869%
Source Step = 26.3849%
Source Step = 27.983%
vernier = 0.0791016
Source Step = 30.3001%
Source Step = 32.6971%
Source Step = 35.0941%
Source Step = 37.4911%
Source Step = 39.8881%
vernier = 0.118652
Source Step = 43.244%
Source Step = 46.8395%
Source Step = 50.435%
Source Step = 54.0305%
Source Step = 57.6261%
vernier = 0.177979
Source Step = 62.48%
Source Step = 67.8733%
Source Step = 73.2666%
Source Step = 78.6599%
Source Step = 84.0532%
vernier = 0.266968
Source Step = 91.0645%
Source Step = 99.1544%
Source stepping succeeded in finding the operating point.


Date: Tue Jan 25 21:19:50 2022
Total elapsed time: 0.375 seconds.

tnom = 27
temp = 27
method = modified trap
totiter = 4090
traniter = 538
tranpoints = 160
accept = 130
rejected = 30
matrix size = 61
fillins = 182
solver = Normal
Thread vector: 11.9/6.1[5] 3.4/2.3[5] 2.0/1.3[5] 0.3/0.5[1]  2592/500
Matrix Compiler1: 24.31 KB object code size  2.6/1.6/[0.8]
Matrix Compiler2: 9.87 KB object code size  0.7/1.1/[0.3]

